# generated using pymatgen
data_TiO2
_symmetry_space_group_name_H-M   'P 1'
_cell_length_a   3.78300000
_cell_length_b   3.78300000
_cell_length_c   9.59000000
_cell_angle_alpha   90.00000000
_cell_angle_beta   90.00000000
_cell_angle_gamma   90.00000000
_symmetry_Int_Tables_number   1
_chemical_formula_structural   TiO2
_chemical_formula_sum   'Ti4 O8'
_cell_volume   137.24334351
_cell_formula_units_Z   4
loop_
 _symmetry_equiv_pos_site_id
 _symmetry_equiv_pos_as_xyz
  1  'x, y, z'
loop_
 _atom_type_symbol
 _atom_type_oxidation_number
  Ti0+  0.0
  O0+  0.0
loop_
 _atom_site_type_symbol
 _atom_site_label
 _atom_site_symmetry_multiplicity
 _atom_site_fract_x
 _atom_site_fract_y
 _atom_site_fract_z
 _atom_site_occupancy
  Ti0+  Ti0  1  0.50000000  0.75000000  0.87500000  1.0
  Ti0+  Ti1  1  0.00000000  0.75000000  0.62500000  1.0
  Ti0+  Ti2  1  0.50000000  0.25000000  0.12500000  1.0
  Ti0+  Ti3  1  0.00000000  0.25000000  0.37500000  1.0
  O0+  O4  1  0.50000000  0.75000000  0.08320000  1.0
  O0+  O5  1  0.00000000  0.75000000  0.83320000  1.0
  O0+  O6  1  0.50000000  0.25000000  0.91680000  1.0
  O0+  O7  1  0.00000000  0.25000000  0.16680000  1.0
  O0+  O8  1  0.00000000  0.25000000  0.58320000  1.0
  O0+  O9  1  0.50000000  0.25000000  0.33320000  1.0
  O0+  O10  1  0.00000000  0.75000000  0.41680000  1.0
  O0+  O11  1  0.50000000  0.75000000  0.66680000  1.0
